!-Generator IDFEditor 1.51
!-Option OriginalOrderTop UseSpecialFormat

!-NOTE: All comments with '!-' are ignored by the IDFEditor and are generated automatically.
!-      Use '!' comments if they need to be retained when using the IDFEditor.


Schedule:Compact,
    System Availability Schedule,  !- Name
    Any Number,              !- Schedule Type Limits Name
    THROUGH: 12/31,          !- Field 1
    FOR: AllDays,            !- Field 2
    UNTIL: 24:00, 1;         !- Field 4

ZoneInfiltration:DesignFlowRate,
    Main Zone Infiltration,  !- Name
    ZONE ONE,                !- Zone or ZoneList Name
    System Availability Schedule,  !- Schedule Name
    Flow/Zone,               !- Design Flow Rate Calculation Method
    0.02,                    !- Design Flow Rate {m3/s}
    ,                        !- Flow per Zone Floor Area {m3/s-m2}
    ,                        !- Flow per Exterior Surface Area {m3/s-m2}
    ,                        !- Air Changes per Hour {1/hr}
    1.0000,                  !- Constant Term Coefficient
    0.0000,                  !- Temperature Term Coefficient
    0.0000,                  !- Velocity Term Coefficient
    0.0000;                  !- Velocity Squared Term Coefficient

Schedule:Compact,
    Fan Availability Schedule,  !- Name
    Any Number,              !- Schedule Type Limits Name
    THROUGH: 12/31,          !- Field 1
    FOR: AllDays,            !- Field 2
    UNTIL: 12:00, 1,         !- Field 4
    UNTIL: 24:00, 0;         !- Field 6

AirLoopHVAC,
    Evap Cooler System,      !- Name
    ,                        !- Controller List Name
    Evap Cooler Availability List,  !- Availability Manager List Name
    2.0,                     !- Design Supply Air Flow Rate {m3/s}
    Air Loop Branches,       !- Branch List Name
    ,                        !- Connector List Name
    Supply Inlet Node,       !- Supply Side Inlet Node Name
    Zone Equipment Outlet Node,  !- Demand Side Outlet Node Name
    Zone Equipment Inlet Node,  !- Demand Side Inlet Node Names
    Supply Outlet Node;      !- Supply Side Outlet Node Names

AvailabilityManagerAssignmentList,
    Evap Cooler Availability List,  !- Name
    AvailabilityManager:LowTemperatureTurnOff,  !- Availability Manager 1 Object Type
    Low Temperature Turn Off Availability Manager,  !- Availability Manager 1 Name
    AvailabilityManager:HighTemperatureTurnOn,  !- Availability Manager 2 Object Type
    High Temperature Turn On Availability Manager;  !- Availability Manager 2 Name

AvailabilityManager:LowTemperatureTurnOff,
    Low Temperature Turn Off Availability Manager,  !- Name
    Main Zone Outlet Node,   !- Sensor Node Name
    23.0;                    !- Temperature {C}

AvailabilityManager:HighTemperatureTurnOn,
    High Temperature Turn On Availability Manager,  !- Name
    Main Zone Outlet Node,   !- Sensor Node Name
    27.0;                    !- Temperature {C}

BranchList,
    Air Loop Branches,       !- Name
    Air Loop Main Branch;    !- Branch 1 Name

Branch,
    Air Loop Main Branch,    !- Name
    ,                        !- Pressure Drop Curve Name
    AirLoopHVAC:OutdoorAirSystem,  !- Component 1 Object Type
    Outside Air System,      !- Component 1 Name
    Supply Inlet Node,       !- Component 1 Inlet Node Name
    Fan Inlet Node,          !- Component 1 Outlet Node Name
    Fan:ConstantVolume,      !- Component 2 Object Type
    Supply Fan,              !- Component 2 Name
    Fan Inlet Node,          !- Component 2 Inlet Node Name
    Evap Cooler Inlet Node,  !- Component 2 Outlet Node Name
    EvaporativeCooler:Direct:CelDekPad,  !- Component 3 Object Type
    Evaporative Cooler,      !- Component 3 Name
    Evap Cooler Inlet Node,  !- Component 3 Inlet Node Name
    Supply Outlet Node;      !- Component 3 Outlet Node Name

AirLoopHVAC:OutdoorAirSystem,
    Outside Air System,      !- Name
    Outside Air System Controllers,  !- Controller List Name
    Outside Air System Equipment,  !- Outdoor Air Equipment List Name
    Evap Cooler Availability List;  !- Availability Manager List Name

OutdoorAir:Node,
    Outside Air Inlet Node;  !- Name

AirLoopHVAC:ControllerList,
    Outside Air System Controllers,  !- Name
    Controller:OutdoorAir,   !- Controller 1 Object Type
    Outside Air Controller;  !- Controller 1 Name

Controller:OutdoorAir,
    Outside Air Controller,  !- Name
    Relief Air Outlet Node,  !- Relief Air Outlet Node Name
    Supply Inlet Node,       !- Return Air Node Name
    Fan Inlet Node,          !- Mixed Air Node Name
    Outside Air Inlet Node,  !- Actuator Node Name
    2.0,                     !- Minimum Outdoor Air Flow Rate {m3/s}
    2.0,                     !- Maximum Outdoor Air Flow Rate {m3/s}
    NoEconomizer,            !- Economizer Control Type
    ModulateFlow,            !- Economizer Control Action Type
    19.,                     !- Economizer Maximum Limit Dry-Bulb Temperature {C}
    ,                        !- Economizer Maximum Limit Enthalpy {J/kg}
    ,                        !- Economizer Maximum Limit Dewpoint Temperature {C}
    ,                        !- Electronic Enthalpy Limit Curve Name
    4.,                      !- Economizer Minimum Limit Dry-Bulb Temperature {C}
    NoLockout,               !- Lockout Type
    FixedMinimum;            !- Minimum Limit Type

AirLoopHVAC:OutdoorAirSystem:EquipmentList,
    Outside Air System Equipment,  !- Name
    OutdoorAir:Mixer,        !- Component 1 Object Type
    Outside Air Mixing Box;  !- Component 1 Name

OutdoorAir:Mixer,
    Outside Air Mixing Box,  !- Name
    Fan Inlet Node,          !- Mixed Air Node Name
    Outside Air Inlet Node,  !- Outdoor Air Stream Node Name
    Relief Air Outlet Node,  !- Relief Air Stream Node Name
    Supply Inlet Node;       !- Return Air Stream Node Name

Fan:ConstantVolume,
    Supply Fan,              !- Name
    Fan Availability Schedule,  !- Availability Schedule Name
    0.7,                     !- Fan Total Efficiency
    600.0,                   !- Pressure Rise {Pa}
    2.0,                     !- Maximum Flow Rate {m3/s}
    0.9,                     !- Motor Efficiency
    1.0,                     !- Motor In Airstream Fraction
    Fan Inlet Node,          !- Air Inlet Node Name
    Evap Cooler Inlet Node;  !- Air Outlet Node Name

EvaporativeCooler:Direct:CelDekPad,
    Evaporative Cooler,      !- Name
    System Availability Schedule,  !- Availability Schedule Name
    0.6,                     !- Direct Pad Area {m2}
    0.2,                     !- Direct Pad Depth {m}
    225,                     !- Recirculating Water Pump Power Consumption {W}
    Evap Cooler Inlet Node,  !- Air Inlet Node Name
    Supply Outlet Node,      !- Air Outlet Node Name
    CONSTANT;                !- Control Type

AirLoopHVAC:SupplyPath,
    Zone Supply Air Path,    !- Name
    Zone Equipment Inlet Node,  !- Supply Air Path Inlet Node Name
    AirLoopHVAC:ZoneSplitter,!- Component 1 Object Type
    Zone Supply Air Splitter;!- Component 1 Name

AirLoopHVAC:ZoneSplitter,
    Zone Supply Air Splitter,!- Name
    Zone Equipment Inlet Node,  !- Inlet Node Name
    Main Zone Inlet Node;    !- Outlet 1 Node Name

AirLoopHVAC:ReturnPath,
    Zone Return Air Path,    !- Name
    Zone Equipment Outlet Node,  !- Return Air Path Outlet Node Name
    AirLoopHVAC:ZoneMixer,   !- Component 1 Object Type
    Zone Return Air Mixer;   !- Component 1 Name

AirLoopHVAC:ZoneMixer,
    Zone Return Air Mixer,   !- Name
    Zone Equipment Outlet Node,  !- Outlet Node Name
    Main Zone Outlet Node;   !- Inlet 1 Node Name

ZoneHVAC:EquipmentConnections,
    ZONE ONE,                !- Zone Name
    Main Zone Equipment,     !- Zone Conditioning Equipment List Name
    Main Zone Inlet Node,    !- Zone Air Inlet Node or NodeList Name
    ,                        !- Zone Air Exhaust Node or NodeList Name
    Main Zone Node,          !- Zone Air Node Name
    Main Zone Outlet Node;   !- Zone Return Air Node Name

ZoneHVAC:EquipmentList,
    Main Zone Equipment,     !- Name
    AirTerminal:SingleDuct:Uncontrolled,  !- Zone Equipment 1 Object Type
    Main Zone Direct Air,    !- Zone Equipment 1 Name
    1,                       !- Zone Equipment 1 Cooling Sequence
    2,                       !- Zone Equipment 1 Heating or No-Load Sequence
    ZoneHVAC:Baseboard:Convective:Electric,  !- Zone Equipment 2 Object Type
    Main Zone Baseboard,     !- Zone Equipment 2 Name
    2,                       !- Zone Equipment 2 Cooling Sequence
    1;                       !- Zone Equipment 2 Heating or No-Load Sequence

AirTerminal:SingleDuct:Uncontrolled,
    Main Zone Direct Air,    !- Name
    System Availability Schedule,  !- Availability Schedule Name
    Main Zone Inlet Node,    !- Zone Supply Air Node Name
    1.5;                     !- Maximum Air Flow Rate {m3/s}

ZoneHVAC:Baseboard:Convective:Electric,
    Main Zone Baseboard,     !- Name
    System Availability Schedule,  !- Availability Schedule Name
    HeatingDesignCapacity,   !- Heating Design Capacity Method
    8000,                    !- Heating Design Capacity {W}
    ,                        !- Heating Design Capacity Per Floor Area {W/m2}
    ,                        !- Fraction of Autosized Heating Design Capacity
    0.97;                    !- Efficiency

Construction,
    DOOR,                    !- Name
    WOOD SIDING-1;           !- Outside Layer

FenestrationSurface:Detailed,
    DOOR,                    !- Name
    Door,                    !- Surface Type
    DOOR,                    !- Construction Name
    SURFACE NORTH,           !- Building Surface Name
    ,                        !- Outside Boundary Condition Object
    autocalculate,           !- View Factor to Ground
    ,                        !- Shading Control Name
    ,                        !- Frame and Divider Name
    1,                       !- Multiplier
    4,                       !- Number of Vertices
    3.375, 0, 0.05,                     !- X,Y,Z  1 {m}
    3.375, 0, 2.5,                      !- X,Y,Z  2 {m}
    4.625, 0, 2.5,                      !- X,Y,Z  3 {m}
    4.625, 0, 0.05;                     !- X,Y,Z  4 {m}

ExternalInterface,
    PtolemyServer;           !- Name of External Interface

ExternalInterface:Schedule,
    Space1-HtgSetP-RL,       !- Name
    Temperature,             !- Schedule Type Limits Name
    21;                      !- Initial Value

ExternalInterface:Schedule,
    Space1-ClgSetP-RL,       !- Name
    Temperature,             !- Schedule Type Limits Name
    25;                      !- Initial Value

ScheduleTypeLimits,
    Temperature,             !- Name
    -60,                     !- Lower Limit Value
    200,                     !- Upper Limit Value
    Continuous,              !- Numeric Type
    Temperature;             !- Unit Type

ThermostatSetpoint:DualSetpoint,
    Space1-DualSetP-RL,      !- Name
    Space1-HtgSetP-RL,       !- Heating Setpoint Temperature Schedule Name
    Space1-ClgSetP-RL;       !- Cooling Setpoint Temperature Schedule Name

RunPeriod,
    ,                        !- Name
    1,                       !- Begin Month
    1,                       !- Begin Day of Month
    12,                      !- End Month
    31,                      !- End Day of Month
    Monday,                  !- Day of Week for Start Day
    Yes,                     !- Use Weather File Holidays and Special Days
    Yes,                     !- Use Weather File Daylight Saving Period
    No,                      !- Apply Weekend Holiday Rule
    Yes,                     !- Use Weather File Rain Indicators
    Yes,                     !- Use Weather File Snow Indicators
    1;                       !- Number of Times Runperiod to be Repeated

Output:Table:SummaryReports,
    AnnualBuildingUtilityPerformanceSummary,  !- Report 1 Name
    InputVerificationandResultsSummary,  !- Report 2 Name
    ClimaticDataSummary,     !- Report 3 Name
    EnvelopeSummary;         !- Report 4 Name

OutputControl:Table:Style,
    HTML;                    !- Column Separator

Output:Variable,*,Lights Electric Energy,timestep;

Schedule:Compact,
    Office Lighting,         !- Name
    Fraction,                !- Schedule Type Limits Name
    Through: 12/31,          !- Field 1
    For: Weekdays SummerDesignDay,  !- Field 2
    Until: 05:00, 0.05,      !- Field 4
    Until: 07:00, 0.1,       !- Field 6
    Until: 08:00, 0.3,       !- Field 8
    Until: 17:00, 0.9,       !- Field 10
    Until: 18:00, 0.5,       !- Field 12
    Until: 20:00, 0.3,       !- Field 14
    Until: 22:00, 0.2,       !- Field 16
    Until: 23:00, 0.1,       !- Field 18
    Until: 24:00, 0.05,      !- Field 20
    For: Saturday WinterDesignDay,  !- Field 21
    Until: 06:00, 0.05,      !- Field 23
    Until: 08:00, 0.1,       !- Field 25
    Until: 12:00, 0.3,       !- Field 27
    Until: 17:00, 0.15,      !- Field 29
    Until: 24:00, 0.05,      !- Field 31
    For: Sunday Holidays AllOtherDays,  !- Field 32
    Until: 24:00, 0.05;      !- Field 34

ScheduleTypeLimits,
    Fraction,                !- Name
    0.0,                     !- Lower Limit Value
    1.0,                     !- Upper Limit Value
    Continuous;              !- Numeric Type

Lights,
    ZONE ONE Lights,         !- Name
    ZONE ONE,                !- Zone or ZoneList Name
    Office Lighting,         !- Schedule Name
    LightingLevel,           !- Design Level Calculation Method
    1000,                    !- Lighting Level {W}
    ,                        !- Watts per Zone Floor Area {W/m2}
    ,                        !- Watts per Person {W/person}
    0,                       !- Return Air Fraction
    0.72,                    !- Fraction Radiant
    0.18,                    !- Fraction Visible
    1,                       !- Fraction Replaceable
    General,                 !- End-Use Subcategory
    No;                      !- Return Air Fraction Calculated from Plenum Temperature

WindowMaterial:Glazing,
    CLEAR 6MM,               !- Name
    SpectralAverage,         !- Optical Data Type
    ,                        !- Window Glass Spectral Data Set Name
    0.006,                   !- Thickness {m}
    0.775,                   !- Solar Transmittance at Normal Incidence
    0.071,                   !- Front Side Solar Reflectance at Normal Incidence
    0.071,                   !- Back Side Solar Reflectance at Normal Incidence
    0.881,                   !- Visible Transmittance at Normal Incidence
    0.080,                   !- Front Side Visible Reflectance at Normal Incidence
    0.080,                   !- Back Side Visible Reflectance at Normal Incidence
    0.0,                     !- Infrared Transmittance at Normal Incidence
    0.84,                    !- Front Side Infrared Hemispherical Emissivity
    0.84,                    !- Back Side Infrared Hemispherical Emissivity
    0.9;                     !- Conductivity {W/m-K}

WindowMaterial:Gas,
    AIR 3MM,                 !- Name
    Air,                     !- Gas Type
    0.0032;                  !- Thickness {m}

Construction,
    DOUBLE PANE WINDOW,      !- Name
    CLEAR 6MM,               !- Outside Layer
    AIR 3MM,                 !- Layer 2
    CLEAR 6MM;               !- Layer 3

FenestrationSurface:Detailed,
    EAST WINDOW,             !- Name
    Window,                  !- Surface Type
    DOUBLE PANE WINDOW,      !- Construction Name
    ZONE SURFACE EAST,       !- Building Surface Name
    ,                        !- Outside Boundary Condition Object
    autocalculate,           !- View Factor to Ground
    ,                        !- Shading Control Name
    ,                        !- Frame and Divider Name
    1,                       !- Multiplier
    4,                       !- Number of Vertices
    8, 1.5, 2.35,                       !- X,Y,Z  1 {m}
    8, 1.5, 0.35,                       !- X,Y,Z  2 {m}
    8, 4.5, 0.35,                       !- X,Y,Z  3 {m}
    8, 4.5, 2.35;                       !- X,Y,Z  4 {m}

FenestrationSurface:Detailed,
    WEST WINDOW,             !- Name
    Window,                  !- Surface Type
    DOUBLE PANE WINDOW,      !- Construction Name
    ZONE SURFACE EAST,       !- Building Surface Name
    ,                        !- Outside Boundary Condition Object
    autocalculate,           !- View Factor to Ground
    ,                        !- Shading Control Name
    ,                        !- Frame and Divider Name
    1,                       !- Multiplier
    4,                       !- Number of Vertices
    0, 1.5, 2.35,                       !- X,Y,Z  1 {m}
    0, 1.5, 0.35,                       !- X,Y,Z  2 {m}
    0, 4.5, 0.35,                       !- X,Y,Z  3 {m}
    0, 4.5, 2.35;                       !- X,Y,Z  4 {m}

Output:Surfaces:List,Details;
! Introduction to EnergyPlus - Exercise 1D
!
! Building: Fictional 1 zone building with lightweight walls and 2 windows.
!           8m x 6m x 2.7m high, long side facing N and S
!           Windows on east and west walls
!           20C heating, 24C cooling
! Internal: Lights, 1000W, Office Lighting schedule, surface-mounted flurorescent
! System:   Purchased Air.
! Plant:    None.
! Environment:  Annual weather file
!
!
Version,8.6;

Building,
    Exercise 1D,             !- Name
    0.0,                     !- North Axis {deg}
    Country,                 !- Terrain
    0.04,                    !- Loads Convergence Tolerance Value
    0.4,                     !- Temperature Convergence Tolerance Value {deltaC}
    FullInteriorAndExterior, !- Solar Distribution
    ,                        !- Maximum Number of Warmup Days
    6;                       !- Minimum Number of Warmup Days

Timestep,4;
SurfaceConvectionAlgorithm:Inside,TARP;
SurfaceConvectionAlgorithm:Outside,TARP;
HeatBalanceAlgorithm,ConductionTransferFunction;

ShadowCalculation,
    AverageOverDaysInFrequency,  !- Calculation Method
    20;                      !- Calculation Frequency

SimulationControl,
    No,                      !- Do Zone Sizing Calculation
    No,                      !- Do System Sizing Calculation
    No,                      !- Do Plant Sizing Calculation
    No,                      !- Run Simulation for Sizing Periods
    Yes;                     !- Run Simulation for Weather File Run Periods

Site:Location,
    Pittsburgh Allegheny Co Ap_PA_USA Design_Conditions,  !- Name
    40.35,                   !- Latitude {deg}
    -79.92,                  !- Longitude {deg}
    -5.00,                   !- Time Zone {hr}
    380.00;                  !- Elevation {m}

! Pittsburgh Allegheny Co Ap_PA_USA Annual Heating 99.6%, MaxDB=-15.4°C
SizingPeriod:DesignDay,
    Pittsburgh Allegheny Co Ap Ann Htg 99.6% Condns DB,  !- Name
    1,                       !- Month
    21,                      !- Day of Month
    WinterDesignDay,         !- Day Type
    -15.4,                   !- Maximum Dry-Bulb Temperature {C}
    0.0,                     !- Daily Dry-Bulb Temperature Range {deltaC}
    DefaultMultipliers,      !- Dry-Bulb Temperature Range Modifier Type
    ,                        !- Dry-Bulb Temperature Range Modifier Day Schedule Name
    Wetbulb,                 !- Humidity Condition Type
    -15.4,                   !- Wetbulb or DewPoint at Maximum Dry-Bulb {C}
    ,                        !- Humidity Condition Day Schedule Name
    ,                        !- Humidity Ratio at Maximum Dry-Bulb {kgWater/kgDryAir}
    ,                        !- Enthalpy at Maximum Dry-Bulb {J/kg}
    ,                        !- Daily Wet-Bulb Temperature Range {deltaC}
    96842.,                  !- Barometric Pressure {Pa}
    4.7,                     !- Wind Speed {m/s}
    240,                     !- Wind Direction {deg}
    No,                      !- Rain Indicator
    No,                      !- Snow Indicator
    No,                      !- Daylight Saving Time Indicator
    ASHRAEClearSky,          !- Solar Model Indicator
    ,                        !- Beam Solar Day Schedule Name
    ,                        !- Diffuse Solar Day Schedule Name
    ,                        !- ASHRAE Clear Sky Optical Depth for Beam Irradiance (taub) {dimensionless}
    ,                        !- ASHRAE Clear Sky Optical Depth for Diffuse Irradiance (taud) {dimensionless}
    0.00;                    !- Sky Clearness

! Pittsburgh Allegheny Co Ap_PA_USA Annual Cooling (DB=>MWB) .4%, MaxDB=32.2°C MWB=22.5°C
SizingPeriod:DesignDay,
    Pittsburgh Allegheny Co Ap Ann Clg .4% Condns DB=>MWB,  !- Name
    7,                       !- Month
    21,                      !- Day of Month
    SummerDesignDay,         !- Day Type
    32.2,                    !- Maximum Dry-Bulb Temperature {C}
    9.9,                     !- Daily Dry-Bulb Temperature Range {deltaC}
    DefaultMultipliers,      !- Dry-Bulb Temperature Range Modifier Type
    ,                        !- Dry-Bulb Temperature Range Modifier Day Schedule Name
    Wetbulb,                 !- Humidity Condition Type
    22.5,                    !- Wetbulb or DewPoint at Maximum Dry-Bulb {C}
    ,                        !- Humidity Condition Day Schedule Name
    ,                        !- Humidity Ratio at Maximum Dry-Bulb {kgWater/kgDryAir}
    ,                        !- Enthalpy at Maximum Dry-Bulb {J/kg}
    ,                        !- Daily Wet-Bulb Temperature Range {deltaC}
    96842.,                  !- Barometric Pressure {Pa}
    4.4,                     !- Wind Speed {m/s}
    240,                     !- Wind Direction {deg}
    No,                      !- Rain Indicator
    No,                      !- Snow Indicator
    No,                      !- Daylight Saving Time Indicator
    ASHRAETau,               !- Solar Model Indicator
    ,                        !- Beam Solar Day Schedule Name
    ,                        !- Diffuse Solar Day Schedule Name
    0.484,                   !- ASHRAE Clear Sky Optical Depth for Beam Irradiance (taub) {dimensionless}
    1.916;                   !- ASHRAE Clear Sky Optical Depth for Diffuse Irradiance (taud) {dimensionless}

Site:GroundTemperature:BuildingSurface,20.03,20.03,20.13,20.30,20.43,20.52,20.62,20.77,20.78,20.55,20.44,20.20;

Material,
    PLASTERBOARD-1,          !- Name
    MediumSmooth,            !- Roughness
    0.01200,                 !- Thickness {m}
    0.16000,                 !- Conductivity {W/m-K}
    950.000,                 !- Density {kg/m3}
    840.00,                  !- Specific Heat {J/kg-K}
    0.900000,                !- Thermal Absorptance
    0.600000,                !- Solar Absorptance
    0.600000;                !- Visible Absorptance

Material,
    FIBERGLASS QUILT-1,      !- Name
    Rough,                   !- Roughness
    0.066,                   !- Thickness {m}
    0.040,                   !- Conductivity {W/m-K}
    12.000,                  !- Density {kg/m3}
    840.00,                  !- Specific Heat {J/kg-K}
    0.900000,                !- Thermal Absorptance
    0.600000,                !- Solar Absorptance
    0.600000;                !- Visible Absorptance

Material,
    WOOD SIDING-1,           !- Name
    Rough,                   !- Roughness
    0.00900,                 !- Thickness {m}
    0.14000,                 !- Conductivity {W/m-K}
    530.000,                 !- Density {kg/m3}
    900.00,                  !- Specific Heat {J/kg-K}
    0.900000,                !- Thermal Absorptance
    0.600000,                !- Solar Absorptance
    0.600000;                !- Visible Absorptance

Material,
    PLASTERBOARD-2,          !- Name
    Rough,                   !- Roughness
    0.01000,                 !- Thickness {m}
    0.16000,                 !- Conductivity {W/m-K}
    950.000,                 !- Density {kg/m3}
    840.00,                  !- Specific Heat {J/kg-K}
    0.900000,                !- Thermal Absorptance
    0.600000,                !- Solar Absorptance
    0.600000;                !- Visible Absorptance

Material,
    FIBERGLASS QUILT-2,      !- Name
    Rough,                   !- Roughness
    0.1118,                  !- Thickness {m}
    0.040,                   !- Conductivity {W/m-K}
    12.000,                  !- Density {kg/m3}
    840.00,                  !- Specific Heat {J/kg-K}
    0.900000,                !- Thermal Absorptance
    0.600000,                !- Solar Absorptance
    0.600000;                !- Visible Absorptance

Material,
    ROOF DECK,               !- Name
    Rough,                   !- Roughness
    0.01900,                 !- Thickness {m}
    0.14000,                 !- Conductivity {W/m-K}
    530.000,                 !- Density {kg/m3}
    900.00,                  !- Specific Heat {J/kg-K}
    0.900000,                !- Thermal Absorptance
    0.600000,                !- Solar Absorptance
    0.600000;                !- Visible Absorptance

Material,
    HF-C5,                   !- Name
    MediumRough,             !- Roughness
    0.1015000,               !- Thickness {m}
    1.729600,                !- Conductivity {W/m-K}
    2243.000,                !- Density {kg/m3}
    837.0000,                !- Specific Heat {J/kg-K}
    0.9000000,               !- Thermal Absorptance
    0.6500000,               !- Solar Absorptance
    0.6500000;               !- Visible Absorptance

Construction,
    LTWALL,                  !- Name
    WOOD SIDING-1,           !- Outside Layer
    FIBERGLASS QUILT-1,      !- Layer 2
    PLASTERBOARD-1;          !- Layer 3

Construction,
    LTFLOOR,                 !- Name
    HF-C5;                   !- Outside Layer

Construction,
    LTROOF,                  !- Name
    ROOF DECK,               !- Outside Layer
    FIBERGLASS QUILT-2,      !- Layer 2
    PLASTERBOARD-2;          !- Layer 3

Zone,
    ZONE ONE,                !- Name
    0,                       !- Direction of Relative North {deg}
    0, 0, 0,                            !- X,Y,Z  {m}
    1,                       !- Type
    1,                       !- Multiplier
    2.7000,                  !- Ceiling Height {m}
    129.6;                   !- Volume {m3}

GlobalGeometryRules,
    UpperLeftCorner,         !- Starting Vertex Position
    Counterclockwise,        !- Vertex Entry Direction
    WorldCoordinateSystem;   !- Coordinate System

BuildingSurface:Detailed,
    SURFACE NORTH,           !- Name
    Wall,                    !- Surface Type
    LTWALL,                  !- Construction Name
    ZONE ONE,                !- Zone Name
    Outdoors,                !- Outside Boundary Condition
    ,                        !- Outside Boundary Condition Object
    SunExposed,              !- Sun Exposure
    WindExposed,             !- Wind Exposure
    0.50,                    !- View Factor to Ground
    4,                       !- Number of Vertices
    8.00, 6.00, 2.70,                   !- X,Y,Z  1 {m}
    8.00, 6.00, 0,                      !- X,Y,Z  2 {m}
    0, 6.00, 0,                         !- X,Y,Z  3 {m}
    0, 6.00, 2.70;                      !- X,Y,Z  4 {m}

BuildingSurface:Detailed,
    ZONE SURFACE EAST,       !- Name
    Wall,                    !- Surface Type
    LTWALL,                  !- Construction Name
    ZONE ONE,                !- Zone Name
    Outdoors,                !- Outside Boundary Condition
    ,                        !- Outside Boundary Condition Object
    SunExposed,              !- Sun Exposure
    WindExposed,             !- Wind Exposure
    0.50,                    !- View Factor to Ground
    4,                       !- Number of Vertices
    8.00, 0, 2.70,                      !- X,Y,Z  1 {m}
    8.00, 0, 0,                         !- X,Y,Z  2 {m}
    8.00, 6.00, 0,                      !- X,Y,Z  3 {m}
    8.00, 6.00, 2.70;                   !- X,Y,Z  4 {m}

BuildingSurface:Detailed,
    ZONE SURFACE SOUTH,      !- Name
    Wall,                    !- Surface Type
    LTWALL,                  !- Construction Name
    ZONE ONE,                !- Zone Name
    Outdoors,                !- Outside Boundary Condition
    ,                        !- Outside Boundary Condition Object
    SunExposed,              !- Sun Exposure
    WindExposed,             !- Wind Exposure
    0.50,                    !- View Factor to Ground
    4,                       !- Number of Vertices
    0, 0, 2.70,                         !- X,Y,Z  1 {m}
    0, 0, 0,                            !- X,Y,Z  2 {m}
    8.00, 0, 0,                         !- X,Y,Z  3 {m}
    8.00, 0, 2.70;                      !- X,Y,Z  4 {m}

BuildingSurface:Detailed,
    ZONE SURFACE WEST,       !- Name
    Wall,                    !- Surface Type
    LTWALL,                  !- Construction Name
    ZONE ONE,                !- Zone Name
    Outdoors,                !- Outside Boundary Condition
    ,                        !- Outside Boundary Condition Object
    SunExposed,              !- Sun Exposure
    WindExposed,             !- Wind Exposure
    0.50,                    !- View Factor to Ground
    4,                       !- Number of Vertices
    0, 6.00, 2.70,                      !- X,Y,Z  1 {m}
    0, 6.00, 0,                         !- X,Y,Z  2 {m}
    0, 0, 0,                            !- X,Y,Z  3 {m}
    0, 0, 2.70;                         !- X,Y,Z  4 {m}
